Version 4
SHEET 1 880 680
WIRE 224 -672 224 -704
WIRE 224 -672 128 -672
WIRE 320 -672 224 -672
WIRE 320 -640 320 -672
WIRE 128 -576 128 -672
WIRE 320 -544 320 -560
WIRE 320 -448 320 -480
WIRE 128 -400 128 -480
WIRE 160 -400 128 -400
WIRE 256 -400 240 -400
WIRE 128 -352 128 -400
WIRE 128 -240 128 -272
WIRE 224 -240 128 -240
WIRE 320 -240 320 -352
WIRE 320 -240 224 -240
WIRE 224 -208 224 -240
FLAG 224 -208 0
FLAG 224 -704 3.3V
IOPIN 224 -704 In
SYMBOL Custom\\NTCLE100E3101_B0 128 -528 M90
SYMATTR InstName U1
SYMATTR Value 10k
SYMATTR SpiceLine ""
SYMBOL Misc\\EuropeanResistor 112 -368 R0
SYMATTR InstName R1
SYMATTR Value 969
SYMBOL Misc\\EuropeanResistor 304 -656 R0
SYMATTR InstName R2
SYMATTR Value 680
SYMBOL npn 256 -448 R0
SYMATTR InstName Q1
SYMBOL LED 304 -544 R0
SYMATTR InstName D1
SYMBOL Misc\\EuropeanResistor 256 -416 R90
WINDOW 0 5 56 VBottom 2
WINDOW 3 27 56 VTop 2
SYMATTR InstName R3
SYMATTR Value 100k
