Version 4
SHEET 1 880 680
WIRE 304 -32 304 -80
WIRE 304 -32 112 -32
WIRE 448 -32 304 -32
WIRE 304 0 304 -32
WIRE 448 0 448 -32
WIRE 112 64 112 -32
WIRE 304 96 304 80
WIRE 448 96 448 80
WIRE 304 192 304 160
WIRE 112 240 112 160
WIRE 144 240 112 240
WIRE 240 240 224 240
WIRE 112 288 112 240
WIRE 304 304 304 288
WIRE 448 352 448 160
WIRE 112 400 112 368
WIRE 256 400 112 400
WIRE 384 400 336 400
WIRE 112 432 112 400
WIRE 112 528 112 512
WIRE 288 528 112 528
WIRE 448 528 448 448
WIRE 448 528 288 528
WIRE 288 544 288 528
FLAG 304 -80 3.3V
IOPIN 304 -80 In
FLAG 304 304 0
FLAG 288 544 0
SYMBOL Custom\\NTCLE100E3101_B0 112 112 M90
SYMATTR InstName U1
SYMATTR Value 10k
SYMATTR SpiceLine ""
SYMBOL Misc\\EuropeanResistor 96 272 R0
SYMATTR InstName R1
SYMATTR Value 490
SYMBOL Misc\\EuropeanResistor 288 -16 R0
SYMATTR InstName R2
SYMATTR Value 680
SYMBOL npn 240 192 R0
SYMATTR InstName Q1
SYMBOL LED 288 96 R0
SYMATTR InstName D1
SYMBOL Misc\\EuropeanResistor 96 416 R0
SYMATTR InstName R1
SYMATTR Value 490
SYMBOL npn 384 352 R0
SYMATTR InstName Q2
SYMBOL Misc\\EuropeanResistor 432 -16 R0
SYMATTR InstName R4
SYMATTR Value 680
SYMBOL LED 432 96 R0
SYMATTR InstName D2
SYMBOL Misc\\EuropeanResistor 240 224 R90
WINDOW 0 5 56 VBottom 2
WINDOW 3 27 56 VTop 2
SYMATTR InstName R3
SYMATTR Value 100k
SYMBOL Misc\\EuropeanResistor 352 384 R90
WINDOW 0 5 56 VBottom 2
WINDOW 3 27 56 VTop 2
SYMATTR InstName R3
SYMATTR Value 100k
